8
acetic acid
C         -0.20287       -0.62150       -0.25199
C          0.56645       -1.69154       -0.95359
H         -0.64727       -1.02746        0.65935
H         -0.98374       -0.22612       -0.90767
H          0.47134        0.20208       -0.00046
O          1.75799       -1.91958       -0.83570
O         -0.21159       -2.46257       -1.73473
H          0.40681       -3.12802       -2.10265