7
acetaldehyde
C         -0.43285       -1.28200        0.22678
C          0.43736       -0.09264       -0.03945
H         -0.97342       -1.54108       -0.68650
H         -1.14838       -1.05298        1.02033
H          0.19417       -2.12217        0.53401
O          0.33399        0.96955        0.56509
H          1.19661       -0.22474       -0.82864