10
acetone
C         -1.14688        1.65133       -1.42692
O         -2.33948        1.40907       -1.24785
C         -0.43410        1.22306       -2.68106
C         -0.32914        2.39049       -0.40258
H         -1.13128        0.69945       -3.34103
H          0.38488        0.54677       -2.42411
H         -0.04795        2.10291       -3.20150
H         -0.95635        2.64508        0.45624
H          0.06079        3.31235       -0.84104
H          0.49362        1.75621       -0.06365