15
adenine
N          0.24647       -0.97084       -0.36999
C          1.57567       -0.72509       -0.41182
N          2.57509       -1.56731       -0.74834
C          2.08440       -2.77392       -1.06412
C          0.76004       -3.17502       -1.07364
C         -0.19043       -2.20412       -0.71677
N         -1.55725       -2.45194       -0.68088
H          1.87648        0.28195       -0.13641
N          0.65688       -4.50448       -1.43599
C          1.89679       -4.88923       -1.65685
N          2.79244       -3.87555       -1.44649
H         -1.78250       -3.43736       -0.60226
H         -2.04160       -1.80849       -0.06933
H          2.20658       -5.87861       -1.96766
H          3.79505       -3.91779       -1.54833