12
benzene
C         -0.26857       -0.46167       -1.43123
C          0.01308        0.05391       -0.16616
C         -0.24001       -0.71245        0.97146
C         -0.77474       -1.99439        0.84402
C         -1.05638       -2.50997       -0.42104
C         -0.80330       -1.74361       -1.55867
H         -1.02274       -2.14531       -2.54430
H         -0.07139        0.13541       -2.31756
H          0.42969        1.05268       -0.06687
H         -0.02057       -0.31075        1.95710
H         -0.97192       -2.59147        1.73036
H         -1.47300       -3.50874       -0.52034
