60
buckminsterfullerene
C     2.16650   0.59060   2.58740
C     3.03780   0.17660   1.59180
C     1.27860  -0.30980   3.16790
C     3.01180  -1.14340   1.16540
C     3.10340  -1.43350  -0.19300
C     3.15030   1.21060   0.66820
C     3.24280   0.91490  -0.68590
C     3.21920  -0.40230  -1.12070
C    -0.43930   1.35270   3.12710
C     0.43630   2.26180   2.55420
C    -0.02960   0.06330   3.43790
C     1.74420   1.87900   2.28300
C     2.35190   2.26760   1.09900
C    -0.26330   3.02680   1.63260
C     0.33740   3.40540   0.43730
C     1.65160   3.02780   0.17070
C    -2.09030  -0.82250   2.59550
C    -2.51110   0.46640   2.28540
C    -0.84490  -1.02520   3.17380
C    -1.68740   1.55330   2.55120
C    -1.58430   2.58580   1.63190
C    -3.23140   0.40610   1.10070
C    -3.12270   1.44100   0.17460
C    -2.29470   2.52910   0.43990
C    -0.49080  -2.91330   1.73650
C    -1.74300  -2.71240   1.16370
C    -0.03930  -2.06840   2.74530
C    -2.54860  -1.66500   1.59420
C    -3.26020  -0.91410   0.67010
C    -1.65430  -3.00610  -0.18970
C    -2.35420  -2.24390  -1.11700
C    -3.16430  -1.19490  -0.68780
C     2.13640  -2.05530   1.73580
C     1.68950  -2.90090   0.72930
C     1.27850  -1.63660   2.74350
C     0.36780  -3.33270   0.73020
C    -0.34400  -3.39040  -0.45940
C     2.28890  -2.52500  -0.46400
C     1.57900  -2.57180  -1.65800
C     0.25600  -3.00540  -1.65310
C    -2.18280  -0.57830  -2.59790
C    -1.74800  -1.86940  -2.30830
C    -0.43850  -2.24690  -2.58450
C    -1.28150   0.31890  -3.16710
C    -2.15260   2.05450  -1.73780
C    -3.04850   1.15350  -1.18110
C    -3.06560  -0.16290  -1.61070
C    -1.26610   1.64070  -2.72710
C     0.50390   2.93610  -1.74180
C    -0.37880   3.35610  -0.75130
C    -1.69430   2.91860  -0.74910
C     0.05210   2.07300  -2.73550
C     2.09760   0.83400  -2.60510
C     2.55170   1.69230  -1.61070
C     1.75890   2.74520  -1.18240
C     0.84200   1.02060  -3.17860
C     0.44610  -1.34950  -3.16610
C     1.69830  -1.54850  -2.59080
C     2.51840  -0.46230  -2.31710
C     0.02180  -0.06450  -3.45850
