15
cyclopentane
C          0.27929        1.60665        0.31933
C         -0.75445        1.20784       -0.73287
C          0.43897        0.40086        1.24347
H         -0.06255        2.48704        0.87442
H          1.23805        1.86423       -0.14352
C         -0.93879       -0.29339       -0.57051
H         -0.43875        1.47670       -1.74544
H         -1.70081        1.72433       -0.53248
C         -0.73375       -0.51116        0.91838
H         -0.17343       -0.83194       -1.14181
H         -1.92162       -0.63096       -0.91137
H         -0.52797       -1.55687        1.16375
H         -1.62424       -0.19581        1.47489
H          0.45890        0.68801        2.29905
H          1.38282       -0.11095        1.02033