9
dimethyl ether
C          0.05784       -1.47953       -1.05476
O          0.75126       -2.58762       -1.61243
H         -0.42522       -0.89385       -1.84289
H          0.78264       -0.84261       -0.54066
H         -0.68623       -1.81961       -0.32797
C         -0.13176       -3.46361       -2.29991
H         -0.88197       -3.86770       -1.61332
H          0.45288       -4.29332       -2.70619
H         -0.62091       -2.94195       -3.12824