13
ethanoic anhydride
C          0.52688       -0.16070       -0.07376
C         -0.34844       -1.36449       -0.27551
H         -0.08010        0.67301        0.29121
H          0.98273        0.12968       -1.02371
H          1.29547       -0.38074        0.67166
O          0.42734       -2.39851       -0.69199
C         -0.18576       -3.58539       -0.93668
C          0.85212       -4.57848       -1.37549
H          1.30707       -4.24922       -2.31309
H          0.37838       -5.55075       -1.53954
H          1.61123       -4.69147       -0.59714
O         -1.55341       -1.34491       -0.08019
O         -1.37020       -3.86606       -0.84284