9
ethanethiol
C          0.17772       -0.87140       -0.34474
C         -0.46568       -2.23328       -0.52625
H         -0.58047       -0.13743       -0.05211
H          0.63961       -0.51752       -1.27269
H          0.94159       -0.88893        0.44005
S          0.77245       -3.46932       -1.00587
H         -1.23704       -2.18778       -1.30090
H         -0.93860       -2.55444        0.40663
H          1.12493       -2.89481       -2.16539