8
ethane
C         -0.02397        0.18484       -0.10430
C         -0.25621       -0.72703       -1.28789
H          0.84954       -0.14240        0.46746
H         -0.89262        0.18008        0.56086
H          0.14829        1.21226       -0.43862
H         -0.42847       -1.75445       -0.95357
H          0.61244       -0.72227       -1.95305
H         -1.12972       -0.39979       -1.85966