6
ethene
C         -0.03751        0.13170       -0.17330
C         -0.24268       -0.67388       -1.21890
H          0.29338        1.15615       -0.31223
H         -0.19641       -0.21746        0.84215
H         -0.08378       -0.32472       -2.23435
H         -0.57357       -1.69833       -1.07997