14
ethyl acetate
C          0.23280        0.26806        0.61047
O          0.54240        0.93844        1.58504
O         -0.20336        0.75893       -0.58179
C          0.28128       -1.22831        0.56114
C         -0.28363        2.18844       -0.63245
H         -0.98340        2.54682        0.13086
C         -0.77971        2.58658       -2.00884
H          0.70783        2.62095       -0.45726
H          0.63209       -1.61143        1.52369
H          0.97763       -1.55121       -0.21681
H         -0.71910       -1.62561        0.37204
H         -1.76160        2.14440       -2.20752
H         -0.10122        2.21715       -2.78491
H         -0.85769        3.67387       -2.09608