14
isobutane (2-methylpropane)
C         -1.33644       -0.25747       -0.08521
C         -0.10269        0.64011       -0.02070
H         -2.25372        0.33865       -0.03460
H         -1.35196       -0.97387        0.74327
H         -1.35670       -0.82333       -1.02260
C          1.17300       -0.19183       -0.13235
C         -0.09981        1.45696        1.26954
H         -0.13679        1.33489       -0.86880
H          1.25701       -0.90563        0.69426
H          2.05913        0.45146       -0.11561
H          1.18761       -0.75678       -1.07040
H         -0.06628        0.80856        2.15176
H         -0.99992        2.07689        1.33896
H          0.76863        2.12315        1.30573