15
thymine
N         -1.15842       -0.93234        0.06158
C          0.15397       -0.68356       -0.21831
N          0.84330       -1.72113       -0.78294
C          0.28774       -2.93787       -1.06177
C         -0.99822       -3.19548       -0.79244
C         -1.80964       -2.11076       -0.17662
C         -1.67732       -4.49596       -1.06650
H         -2.51541       -4.35383       -1.75651
H         -2.06003       -4.93263       -0.13830
H         -0.99388       -5.22248       -1.51871
H          0.94790       -3.67390       -1.51042
O         -2.99409       -2.26763        0.10022
H         -1.69002       -0.18497        0.47815
H          1.81842       -1.53809       -0.99155
O          0.68480        0.39608        0.01846