4
iter 1
C     -1.04039150     1.67297033    -1.44273591
O     -2.23745382     1.43042794    -1.26280341
H     -0.51946468     1.36436533    -2.35010844
H     -0.44390000     2.20839640    -0.70332224
4
iter 2
C     -1.04329539     1.67240013    -1.44234557
O     -2.23135203     1.43160739    -1.26380885
H     -0.52084134     1.36773912    -2.34256443
H     -0.44572124     2.20441335    -0.71025116
4
iter 3
C     -1.04232203     1.67263063    -1.44247339
O     -2.23086896     1.43166866    -1.26393957
H     -0.52145102     1.36952169    -2.33864247
H     -0.44656799     2.20233901    -0.71391457
4
iter 4
C     -1.04169033     1.67278077    -1.44254578
O     -2.23172049     1.43147899    -1.26383880
H     -0.52130571     1.37016765    -2.33742341
H     -0.44649348     2.20173259    -0.71516201
4
iter 5
C     -1.04265952     1.67263059    -1.44235492
O     -2.23475381     1.43083037    -1.26343503
H     -0.51929751     1.37107907    -2.33670010
H     -0.44449915     2.20161997    -0.71647995
4
iter 6
C     -1.04348984     1.67245132    -1.44225669
O     -2.23473351     1.43083550    -1.26343455
H     -0.51889946     1.37114691    -2.33678408
H     -0.44408720     2.20172627    -0.71649468
4
iter 7
C     -1.04355582     1.67243691    -1.44224928
O     -2.23474302     1.43083372    -1.26343268
H     -0.51886219     1.37115376    -2.33679094
H     -0.44404897     2.20173561    -0.71649711
4
iter 8
C     -1.04370257     1.67239972    -1.44224622
O     -2.23520797     1.43074205    -1.26335629
H     -0.51855458     1.37123194    -2.33680413
H     -0.44374489     2.20178628    -0.71656337
4
iter 9
C     -1.04365160     1.67241469    -1.44224559
O     -2.23534032     1.43071501    -1.26333650
H     -0.51850884     1.37126382    -2.33676543
H     -0.44370924     2.20176648    -0.71662247
4
iter 10
C     -1.04364234     1.67241990    -1.44224090
O     -2.23538131     1.43070659    -1.26333038
H     -0.51848891     1.37128810    -2.33672772
H     -0.44369744     2.20174541    -0.71667099
4
iter 11
C     -1.04370063     1.67240927    -1.44223035
O     -2.23534961     1.43071349    -1.26333400
H     -0.51847080     1.37132330    -2.33666717
H     -0.44368895     2.20171395    -0.71673847
4
iter 12
C     -1.04370584     1.67240401    -1.44223834
O     -2.23533650     1.43071748    -1.26333320
H     -0.51847196     1.37135541    -2.33660215
H     -0.44369570     2.20168310    -0.71679631
4
iter 13
C     -1.04370560     1.67240438    -1.44223779
O     -2.23533789     1.43071722    -1.26333292
H     -0.51847071     1.37135978    -2.33659409
H     -0.44369580     2.20167862    -0.71680520
4
iter 14
C     -1.04370605     1.67240734    -1.44223165
O     -2.23534939     1.43071436    -1.26333224
H     -0.51846381     1.37135956    -2.33659835
H     -0.44369076     2.20167874    -0.71680776
4
iter 15
C     -1.04371176     1.67240606    -1.44223106
O     -2.23535820     1.43071262    -1.26333080
H     -0.51845650     1.37136115    -2.33659923
H     -0.44368354     2.20168016    -0.71680892
4
iter 16
C     -1.04371290     1.67240461    -1.44223333
O     -2.23535883     1.43071273    -1.26333024
H     -0.51845589     1.37136259    -2.33659669
H     -0.44368238     2.20168007    -0.71680974
4
iter 17
C     -1.04371270     1.67240480    -1.44223309
O     -2.23535876     1.43071272    -1.26333028
H     -0.51845578     1.37136455    -2.33659281
H     -0.44368276     2.20167793    -0.71681381
4
iter 18
C     -1.04371349     1.67240465    -1.44223294
O     -2.23535863     1.43071275    -1.26333030
H     -0.51845539     1.37136522    -2.33659169
H     -0.44368250     2.20167738    -0.71681506
4
iter 19
C     -1.04371417     1.67240443    -1.44223302
O     -2.23535940     1.43071261    -1.26333015
H     -0.51845469     1.37136529    -2.33659194
H     -0.44368174     2.20167767    -0.71681489
4
iter 20
C     -1.04371418     1.67240444    -1.44223298
O     -2.23535984     1.43071252    -1.26333010
H     -0.51845447     1.37136533    -2.33659199
H     -0.44368152     2.20167771    -0.71681493
4
iter 21
C     -1.04371415     1.67240447    -1.44223295
O     -2.23536002     1.43071248    -1.26333007
H     -0.51845438     1.37136535    -2.33659198
H     -0.44368144     2.20167770    -0.71681500
4
iter 22
C     -1.04371418     1.67240451    -1.44223286
O     -2.23536011     1.43071245    -1.26333008
H     -0.51845430     1.37136546    -2.33659182
H     -0.44368141     2.20167759    -0.71681524
