10
INSERT TITLE CARD HERE
C   	    0.00000	    0.00000	    0.00000
O   	    1.21361	    0.00000	    0.00000
H   	   -0.63755	    0.90233	    0.00000
O   	   -0.78131	   -1.11342	    0.00000
H   	   -0.21591	   -1.92209	    0.00000
O   	   -0.49175	   -3.82892	    0.00000
C   	   -1.68072	   -4.12031	    0.00000
H   	   -2.05839	   -5.15643	    0.00000
O   	   -2.70690	   -3.25056	    0.00000
H   	   -2.33812	   -2.34194	    0.00000
